*SPEF "ieee 1481-1999"
*DESIGN "gcd"
*DATE "11:11:11 Fri 11 11, 1111"
*VENDOR "OpenRCX"
*PROGRAM "Parallel Extraction"
*VERSION "1.0"
*DESIGN_FLOW "NAME_SCOPE LOCAL" "PIN_CAP NONE"
*DIVIDER /
*DELIMITER :
*BUS_DELIMITER []
*T_UNIT 1 NS
*C_UNIT 1 PF
*R_UNIT 1 OHM
*L_UNIT 1 HENRY

*NAME_MAP
*1 clk
*2 req_msg[0]
*3 req_msg[10]
*4 req_msg[11]
*5 req_msg[12]
*6 req_msg[13]
*7 req_msg[14]
*8 req_msg[15]
*9 req_msg[16]
*10 req_msg[17]
*11 req_msg[18]
*12 req_msg[19]
*13 req_msg[1]
*14 req_msg[20]
*15 req_msg[21]
*16 req_msg[22]
*17 req_msg[23]
*18 req_msg[24]
*19 req_msg[25]
*20 req_msg[26]
*21 req_msg[27]
*22 req_msg[28]
*23 req_msg[29]
*24 req_msg[2]
*25 req_msg[30]
*26 req_msg[31]
*27 req_msg[3]
*28 req_msg[4]
*29 req_msg[5]
*30 req_msg[6]
*31 req_msg[7]
*32 req_msg[8]
*33 req_msg[9]
*34 req_rdy
*35 req_val
*36 reset
*37 resp_msg[0]
*38 resp_msg[10]
*39 resp_msg[11]
*40 resp_msg[12]
*41 resp_msg[13]
*42 resp_msg[14]
*43 resp_msg[15]
*44 resp_msg[1]
*45 resp_msg[2]
*46 resp_msg[3]
*47 resp_msg[4]
*48 resp_msg[5]
*49 resp_msg[6]
*50 resp_msg[7]
*51 resp_msg[8]
*52 resp_msg[9]
*53 resp_rdy
*54 resp_val
*57 _000_
*58 _001_
*59 _002_
*60 _003_
*61 _004_
*62 _005_
*63 _006_
*64 _007_
*65 _008_
*66 _009_
*67 _010_
*68 _011_
*69 _012_
*70 _013_
*71 _014_
*72 _015_
*73 _016_
*74 _017_
*75 _018_
*76 _019_
*77 _020_
*78 _021_
*79 _022_
*80 _023_
*81 _024_
*82 _025_
*83 _026_
*84 _027_
*85 _028_
*86 _029_
*87 _030_
*88 _031_
*89 _032_
*90 _033_
*91 _034_
*92 _035_
*93 _036_
*94 _037_
*95 _038_
*96 _039_
*97 _040_
*98 _041_
*99 _042_
*100 _043_
*101 _044_
*102 _045_
*103 _046_
*104 _047_
*105 _048_
*106 _049_
*107 _050_
*108 _051_
*109 _052_
*110 _053_
*111 _054_
*112 _055_
*113 _056_
*114 _057_
*115 _058_
*116 _059_
*117 _060_
*118 _061_
*119 _062_
*120 _063_
*121 _064_
*122 _065_
*123 _066_
*124 _067_
*125 _068_
*126 _069_
*127 _070_
*128 _071_
*129 _072_
*130 _073_
*131 _074_
*132 _075_
*133 _076_
*134 _077_
*135 _078_
*136 _079_
*137 _080_
*138 _081_
*139 _082_
*140 _083_
*141 _084_
*142 _085_
*143 _086_
*144 _087_
*145 _088_
*146 _089_
*147 _090_
*148 _091_
*149 _092_
*150 _093_
*151 _094_
*152 _095_
*153 _096_
*154 _097_
*155 _100_
*156 _101_
*157 _102_
*158 _103_
*159 _104_
*160 _105_
*161 _106_
*162 _109_
*163 _110_
*164 _111_
*165 _112_
*166 _115_
*167 _116_
*168 _118_
*169 _119_
*170 _120_
*171 _121_
*172 _122_
*173 _123_
*174 _124_
*175 _125_
*176 _126_
*177 _127_
*178 _128_
*179 _129_
*180 _130_
*181 _131_
*182 _132_
*183 _133_
*184 _135_
*185 _137_
*186 _140_
*187 _142_
*188 _143_
*189 _145_
*190 _146_
*191 _147_
*192 _148_
*193 _149_
*194 _150_
*195 _151_
*196 _152_
*197 _153_
*198 _154_
*199 _155_
*200 _156_
*201 _157_
*202 _158_
*203 _159_
*204 _160_
*205 _161_
*206 _162_
*207 _163_
*208 _164_
*209 _165_
*210 _166_
*211 _167_
*212 _168_
*213 _169_
*214 _170_
*215 _171_
*216 _172_
*217 _173_
*218 _174_
*219 _175_
*220 _176_
*221 _177_
*222 _178_
*223 _179_
*224 _180_
*225 _181_
*226 clknet_0_clk
*227 clknet_1_0_0_clk
*228 clknet_1_1_0_clk
*229 clknet_2_0_0_clk
*230 clknet_2_1_0_clk
*231 clknet_2_2_0_clk
*232 clknet_2_3_0_clk
*233 ctrl\.state\.out\[1\]
*234 ctrl\.state\.out\[2\]
*235 dpath\.a_lt_b\$in0\[0\]
*236 dpath\.a_lt_b\$in0\[10\]
*237 dpath\.a_lt_b\$in0\[11\]
*238 dpath\.a_lt_b\$in0\[12\]
*239 dpath\.a_lt_b\$in0\[13\]
*240 dpath\.a_lt_b\$in0\[14\]
*241 dpath\.a_lt_b\$in0\[15\]
*242 dpath\.a_lt_b\$in0\[1\]
*243 dpath\.a_lt_b\$in0\[2\]
*244 dpath\.a_lt_b\$in0\[3\]
*245 dpath\.a_lt_b\$in0\[4\]
*246 dpath\.a_lt_b\$in0\[5\]
*247 dpath\.a_lt_b\$in0\[6\]
*248 dpath\.a_lt_b\$in0\[7\]
*249 dpath\.a_lt_b\$in0\[8\]
*250 dpath\.a_lt_b\$in0\[9\]
*251 dpath\.a_lt_b\$in1\[0\]
*252 dpath\.a_lt_b\$in1\[10\]
*253 dpath\.a_lt_b\$in1\[11\]
*254 dpath\.a_lt_b\$in1\[12\]
*255 dpath\.a_lt_b\$in1\[13\]
*256 dpath\.a_lt_b\$in1\[14\]
*257 dpath\.a_lt_b\$in1\[15\]
*258 dpath\.a_lt_b\$in1\[1\]
*259 dpath\.a_lt_b\$in1\[2\]
*260 dpath\.a_lt_b\$in1\[3\]
*261 dpath\.a_lt_b\$in1\[4\]
*262 dpath\.a_lt_b\$in1\[5\]
*263 dpath\.a_lt_b\$in1\[6\]
*264 dpath\.a_lt_b\$in1\[7\]
*265 dpath\.a_lt_b\$in1\[8\]
*266 dpath\.a_lt_b\$in1\[9\]
*267 net1
*268 net10
*269 net100
*270 net101
*271 net102
*272 net103
*273 net104
*274 net105
*275 net106
*276 net107
*277 net108
*278 net109
*279 net11
*280 net110
*281 net12
*282 net13
*283 net14
*284 net15
*285 net16
*286 net17
*287 net18
*288 net19
*289 net2
*290 net20
*291 net21
*292 net22
*293 net23
*294 net24
*295 net25
*296 net26
*297 net27
*298 net28
*299 net29
*300 net3
*301 net30
*302 net31
*303 net32
*304 net33
*305 net34
*306 net35
*307 net36
*308 net37
*309 net38
*310 net39
*311 net4
*312 net40
*313 net41
*314 net42
*315 net43
*316 net44
*317 net45
*318 net46
*319 net47
*320 net48
*321 net49
*322 net5
*323 net50
*324 net51
*325 net52
*326 net53
*327 net54
*328 net55
*329 net56
*330 net57
*331 net58
*332 net59
*333 net6
*334 net60
*335 net61
*336 net62
*337 net63
*338 net64
*339 net65
*340 net66
*341 net67
*342 net68
*343 net69
*344 net7
*345 net70
*346 net71
*347 net72
*348 net73
*349 net74
*350 net75
*351 net76
*352 net77
*353 net78
*354 net79
*355 net8
*356 net80
*357 net81
*358 net82
*359 net83
*360 net84
*361 net85
*362 net86
*363 net87
*364 net88
*365 net89
*366 net9
*367 net90
*368 net91
*369 net92
*370 net93
*371 net94
*372 net95
*373 net96
*374 net97
*375 net98
*376 net99
*377 FILLER_0_0
*378 FILLER_0_107
*379 FILLER_0_115
*380 FILLER_0_119
*381 FILLER_0_121
*382 FILLER_0_129
*383 FILLER_0_137
*384 FILLER_0_145
*385 FILLER_0_149
*386 FILLER_0_151
*387 FILLER_0_159
*388 FILLER_0_16
*389 FILLER_0_167
*390 FILLER_0_175
*391 FILLER_0_179
*392 FILLER_0_181
*393 FILLER_0_189
*394 FILLER_0_193
*395 FILLER_0_195
*396 FILLER_0_206
*397 FILLER_0_211
*398 FILLER_0_219
*399 FILLER_0_223
*400 FILLER_0_225
*401 FILLER_0_236
*402 FILLER_0_24
*403 FILLER_0_241
*404 FILLER_0_255
*405 FILLER_0_263
*406 FILLER_0_267
*407 FILLER_0_269
*408 FILLER_0_271
*409 FILLER_0_279
*410 FILLER_0_28
*411 FILLER_0_290
*412 FILLER_0_298
*413 FILLER_0_301
*414 FILLER_0_308
*415 FILLER_0_31
*416 FILLER_0_312
*417 FILLER_0_323
*418 FILLER_0_327
*419 FILLER_0_329
*420 FILLER_0_331
*421 FILLER_0_339
*422 FILLER_0_347
*423 FILLER_0_355
*424 FILLER_0_359
*425 FILLER_0_361
*426 FILLER_0_369
*427 FILLER_0_377
*428 FILLER_0_385
*429 FILLER_0_389
*430 FILLER_0_39
*431 FILLER_0_391
*432 FILLER_0_399
*433 FILLER_0_407
*434 FILLER_0_415
*435 FILLER_0_419
*436 FILLER_0_421
*437 FILLER_0_429
*438 FILLER_0_437
*439 FILLER_0_445
*440 FILLER_0_449
*441 FILLER_0_451
*442 FILLER_0_459
*443 FILLER_0_467
*444 FILLER_0_47
*445 FILLER_0_475
*446 FILLER_0_479
*447 FILLER_0_481
*448 FILLER_0_489
*449 FILLER_0_497
*450 FILLER_0_505
*451 FILLER_0_509
*452 FILLER_0_511
*453 FILLER_0_519
*454 FILLER_0_527
*455 FILLER_0_535
*456 FILLER_0_539
*457 FILLER_0_541
*458 FILLER_0_549
*459 FILLER_0_55
*460 FILLER_0_557
*461 FILLER_0_561
*462 FILLER_0_563
*463 FILLER_0_59
*464 FILLER_0_61
*465 FILLER_0_69
*466 FILLER_0_77
*467 FILLER_0_8
*468 FILLER_0_85
*469 FILLER_0_89
*470 FILLER_0_91
*471 FILLER_0_99
*472 FILLER_10_0
*473 FILLER_10_107
*474 FILLER_10_115
*475 FILLER_10_123
*476 FILLER_10_131
*477 FILLER_10_139
*478 FILLER_10_147
*479 FILLER_10_149
*480 FILLER_10_151
*481 FILLER_10_159
*482 FILLER_10_16
*483 FILLER_10_167
*484 FILLER_10_175
*485 FILLER_10_183
*486 FILLER_10_191
*487 FILLER_10_199
*488 FILLER_10_207
*489 FILLER_10_209
*490 FILLER_10_211
*491 FILLER_10_219
*492 FILLER_10_227
*493 FILLER_10_235
*494 FILLER_10_24
*495 FILLER_10_243
*496 FILLER_10_251
*497 FILLER_10_259
*498 FILLER_10_267
*499 FILLER_10_269
*500 FILLER_10_271
*501 FILLER_10_279
*502 FILLER_10_28
*503 FILLER_10_287
*504 FILLER_10_295
*505 FILLER_10_303
*506 FILLER_10_31
*507 FILLER_10_311
*508 FILLER_10_319
*509 FILLER_10_327
*510 FILLER_10_329
*511 FILLER_10_331
*512 FILLER_10_339
*513 FILLER_10_347
*514 FILLER_10_355
*515 FILLER_10_363
*516 FILLER_10_371
*517 FILLER_10_379
*518 FILLER_10_387
*519 FILLER_10_389
*520 FILLER_10_39
*521 FILLER_10_391
*522 FILLER_10_399
*523 FILLER_10_407
*524 FILLER_10_415
*525 FILLER_10_423
*526 FILLER_10_431
*527 FILLER_10_439
*528 FILLER_10_447
*529 FILLER_10_449
*530 FILLER_10_451
*531 FILLER_10_459
*532 FILLER_10_467
*533 FILLER_10_47
*534 FILLER_10_475
*535 FILLER_10_483
*536 FILLER_10_491
*537 FILLER_10_499
*538 FILLER_10_507
*539 FILLER_10_509
*540 FILLER_10_511
*541 FILLER_10_519
*542 FILLER_10_527
*543 FILLER_10_535
*544 FILLER_10_543
*545 FILLER_10_55
*546 FILLER_10_551
*547 FILLER_10_559
*548 FILLER_10_563
*549 FILLER_10_63
*550 FILLER_10_71
*551 FILLER_10_79
*552 FILLER_10_8
*553 FILLER_10_87
*554 FILLER_10_89
*555 FILLER_10_91
*556 FILLER_10_99
*557 FILLER_11_0
*558 FILLER_11_101
*559 FILLER_11_109
*560 FILLER_11_117
*561 FILLER_11_119
*562 FILLER_11_121
*563 FILLER_11_129
*564 FILLER_11_137
*565 FILLER_11_145
*566 FILLER_11_153
*567 FILLER_11_16
*568 FILLER_11_161
*569 FILLER_11_169
*570 FILLER_11_177
*571 FILLER_11_179
*572 FILLER_11_181
*573 FILLER_11_189
*574 FILLER_11_197
*575 FILLER_11_205
*576 FILLER_11_213
*577 FILLER_11_221
*578 FILLER_11_229
*579 FILLER_11_237
*580 FILLER_11_239
*581 FILLER_11_24
*582 FILLER_11_241
*583 FILLER_11_249
*584 FILLER_11_257
*585 FILLER_11_265
*586 FILLER_11_273
*587 FILLER_11_281
*588 FILLER_11_289
*589 FILLER_11_297
*590 FILLER_11_299
*591 FILLER_11_301
*592 FILLER_11_309
*593 FILLER_11_317
*594 FILLER_11_32
*595 FILLER_11_325
*596 FILLER_11_333
*597 FILLER_11_341
*598 FILLER_11_349
*599 FILLER_11_357
*600 FILLER_11_359
*601 FILLER_11_361
*602 FILLER_11_369
*603 FILLER_11_377
*604 FILLER_11_385
*605 FILLER_11_393
*606 FILLER_11_40
*607 FILLER_11_401
*608 FILLER_11_409
*609 FILLER_11_417
*610 FILLER_11_419
*611 FILLER_11_421
*612 FILLER_11_429
*613 FILLER_11_437
*614 FILLER_11_445
*615 FILLER_11_453
*616 FILLER_11_461
*617 FILLER_11_469
*618 FILLER_11_477
*619 FILLER_11_479
*620 FILLER_11_48
*621 FILLER_11_481
*622 FILLER_11_489
*623 FILLER_11_497
*624 FILLER_11_505
*625 FILLER_11_513
*626 FILLER_11_521
*627 FILLER_11_529
*628 FILLER_11_537
*629 FILLER_11_539
*630 FILLER_11_541
*631 FILLER_11_549
*632 FILLER_11_557
*633 FILLER_11_56
*634 FILLER_11_561
*635 FILLER_11_563
*636 FILLER_11_61
*637 FILLER_11_69
*638 FILLER_11_77
*639 FILLER_11_8
*640 FILLER_11_85
*641 FILLER_11_93
*642 FILLER_12_0
*643 FILLER_12_107
*644 FILLER_12_115
*645 FILLER_12_123
*646 FILLER_12_131
*647 FILLER_12_139
*648 FILLER_12_147
*649 FILLER_12_149
*650 FILLER_12_151
*651 FILLER_12_159
*652 FILLER_12_16
*653 FILLER_12_167
*654 FILLER_12_175
*655 FILLER_12_183
*656 FILLER_12_191
*657 FILLER_12_199
*658 FILLER_12_207
*659 FILLER_12_209
*660 FILLER_12_211
*661 FILLER_12_219
*662 FILLER_12_227
*663 FILLER_12_235
*664 FILLER_12_24
*665 FILLER_12_243
*666 FILLER_12_251
*667 FILLER_12_259
*668 FILLER_12_267
*669 FILLER_12_269
*670 FILLER_12_271
*671 FILLER_12_279
*672 FILLER_12_28
*673 FILLER_12_287
*674 FILLER_12_295
*675 FILLER_12_303
*676 FILLER_12_31
*677 FILLER_12_311
*678 FILLER_12_319
*679 FILLER_12_327
*680 FILLER_12_329
*681 FILLER_12_331
*682 FILLER_12_339
*683 FILLER_12_347
*684 FILLER_12_355
*685 FILLER_12_363
*686 FILLER_12_371
*687 FILLER_12_379
*688 FILLER_12_387
*689 FILLER_12_389
*690 FILLER_12_39
*691 FILLER_12_391
*692 FILLER_12_399
*693 FILLER_12_407
*694 FILLER_12_415
*695 FILLER_12_423
*696 FILLER_12_431
*697 FILLER_12_439
*698 FILLER_12_447
*699 FILLER_12_449
*700 FILLER_12_451
*701 FILLER_12_459
*702 FILLER_12_467
*703 FILLER_12_47
*704 FILLER_12_475
*705 FILLER_12_483
*706 FILLER_12_491
*707 FILLER_12_499
*708 FILLER_12_507
*709 FILLER_12_509
*710 FILLER_12_511
*711 FILLER_12_519
*712 FILLER_12_527
*713 FILLER_12_535
*714 FILLER_12_543
*715 FILLER_12_55
*716 FILLER_12_551
*717 FILLER_12_559
*718 FILLER_12_563
*719 FILLER_12_63
*720 FILLER_12_71
*721 FILLER_12_79
*722 FILLER_12_8
*723 FILLER_12_87
*724 FILLER_12_89
*725 FILLER_12_91
*726 FILLER_12_99
*727 FILLER_13_0
*728 FILLER_13_101
*729 FILLER_13_109
*730 FILLER_13_117
*731 FILLER_13_119
*732 FILLER_13_121
*733 FILLER_13_129
*734 FILLER_13_137
*735 FILLER_13_145
*736 FILLER_13_153
*737 FILLER_13_16
*738 FILLER_13_161
*739 FILLER_13_169
*740 FILLER_13_177
*741 FILLER_13_179
*742 FILLER_13_181
*743 FILLER_13_189
*744 FILLER_13_197
*745 FILLER_13_205
*746 FILLER_13_213
*747 FILLER_13_221
*748 FILLER_13_229
*749 FILLER_13_237
*750 FILLER_13_239
*751 FILLER_13_24
*752 FILLER_13_241
*753 FILLER_13_249
*754 FILLER_13_257
*755 FILLER_13_265
*756 FILLER_13_273
*757 FILLER_13_281
*758 FILLER_13_289
*759 FILLER_13_297
*760 FILLER_13_299
*761 FILLER_13_301
*762 FILLER_13_309
*763 FILLER_13_317
*764 FILLER_13_32
*765 FILLER_13_325
*766 FILLER_13_333
*767 FILLER_13_341
*768 FILLER_13_349
*769 FILLER_13_357
*770 FILLER_13_359
*771 FILLER_13_361
*772 FILLER_13_369
*773 FILLER_13_377
*774 FILLER_13_385
*775 FILLER_13_393
*776 FILLER_13_40
*777 FILLER_13_401
*778 FILLER_13_409
*779 FILLER_13_417
*780 FILLER_13_419
*781 FILLER_13_421
*782 FILLER_13_429
*783 FILLER_13_437
*784 FILLER_13_445
*785 FILLER_13_453
*786 FILLER_13_461
*787 FILLER_13_469
*788 FILLER_13_477
*789 FILLER_13_479
*790 FILLER_13_48
*791 FILLER_13_481
*792 FILLER_13_489
*793 FILLER_13_497
*794 FILLER_13_505
*795 FILLER_13_513
*796 FILLER_13_521
*797 FILLER_13_529
*798 FILLER_13_537
*799 FILLER_13_539
*800 FILLER_13_541
*801 FILLER_13_549
*802 FILLER_13_557
*803 FILLER_13_56
*804 FILLER_13_561
*805 FILLER_13_563
*806 FILLER_13_61
*807 FILLER_13_69
*808 FILLER_13_77
*809 FILLER_13_8
*810 FILLER_13_85
*811 FILLER_13_93
*812 FILLER_14_0
*813 FILLER_14_107
*814 FILLER_14_115
*815 FILLER_14_123
*816 FILLER_14_131
*817 FILLER_14_139
*818 FILLER_14_147
*819 FILLER_14_149
*820 FILLER_14_151
*821 FILLER_14_159
*822 FILLER_14_16
*823 FILLER_14_167
*824 FILLER_14_175
*825 FILLER_14_183
*826 FILLER_14_191
*827 FILLER_14_199
*828 FILLER_14_207
*829 FILLER_14_209
*830 FILLER_14_211
*831 FILLER_14_219
*832 FILLER_14_227
*833 FILLER_14_235
*834 FILLER_14_24
*835 FILLER_14_243
*836 FILLER_14_251
*837 FILLER_14_259
*838 FILLER_14_267
*839 FILLER_14_269
*840 FILLER_14_271
*841 FILLER_14_279
*842 FILLER_14_28
*843 FILLER_14_287
*844 FILLER_14_295
*845 FILLER_14_303
*846 FILLER_14_31
*847 FILLER_14_311
*848 FILLER_14_319
*849 FILLER_14_327
*850 FILLER_14_329
*851 FILLER_14_331
*852 FILLER_14_339
*853 FILLER_14_347
*854 FILLER_14_355
*855 FILLER_14_363
*856 FILLER_14_371
*857 FILLER_14_379
*858 FILLER_14_387
*859 FILLER_14_389
*860 FILLER_14_39
*861 FILLER_14_391
*862 FILLER_14_399
*863 FILLER_14_407
*864 FILLER_14_415
*865 FILLER_14_423
*866 FILLER_14_431
*867 FILLER_14_439
*868 FILLER_14_447
*869 FILLER_14_449
*870 FILLER_14_451
*871 FILLER_14_459
*872 FILLER_14_467
*873 FILLER_14_47
*874 FILLER_14_475
*875 FILLER_14_483
*876 FILLER_14_491
*877 FILLER_14_499
*878 FILLER_14_507
*879 FILLER_14_509
*880 FILLER_14_511
*881 FILLER_14_519
*882 FILLER_14_527
*883 FILLER_14_535
*884 FILLER_14_543
*885 FILLER_14_55
*886 FILLER_14_551
*887 FILLER_14_559
*888 FILLER_14_563
*889 FILLER_14_63
*890 FILLER_14_71
*891 FILLER_14_79
*892 FILLER_14_8
*893 FILLER_14_87
*894 FILLER_14_89
*895 FILLER_14_91
*896 FILLER_14_99
*897 FILLER_15_0
*898 FILLER_15_101
*899 FILLER_15_109
*900 FILLER_15_117
*901 FILLER_15_119
*902 FILLER_15_121
*903 FILLER_15_129
*904 FILLER_15_137
*905 FILLER_15_145
*906 FILLER_15_153
*907 FILLER_15_16
*908 FILLER_15_161
*909 FILLER_15_169
*910 FILLER_15_177
*911 FILLER_15_179
*912 FILLER_15_181
*913 FILLER_15_189
*914 FILLER_15_197
*915 FILLER_15_205
*916 FILLER_15_213
*917 FILLER_15_221
*918 FILLER_15_229
*919 FILLER_15_237
*920 FILLER_15_239
*921 FILLER_15_24
*922 FILLER_15_241
*923 FILLER_15_249
*924 FILLER_15_257
*925 FILLER_15_265
*926 FILLER_15_273
*927 FILLER_15_281
*928 FILLER_15_289
*929 FILLER_15_297
*930 FILLER_15_299
*931 FILLER_15_301
*932 FILLER_15_309
*933 FILLER_15_317
*934 FILLER_15_32
*935 FILLER_15_325
*936 FILLER_15_333
*937 FILLER_15_341
*938 FILLER_15_349
*939 FILLER_15_357
*940 FILLER_15_359
*941 FILLER_15_361
*942 FILLER_15_369
*943 FILLER_15_377
*944 FILLER_15_385
*945 FILLER_15_393
*946 FILLER_15_40
*947 FILLER_15_401
*948 FILLER_15_409
*949 FILLER_15_417
*950 FILLER_15_419
*951 FILLER_15_421
*952 FILLER_15_429
*953 FILLER_15_437
*954 FILLER_15_445
*955 FILLER_15_453
*956 FILLER_15_461
*957 FILLER_15_469
*958 FILLER_15_477
*959 FILLER_15_479
*960 FILLER_15_48
*961 FILLER_15_481
*962 FILLER_15_489
*963 FILLER_15_497
*964 FILLER_15_505
*965 FILLER_15_513
*966 FILLER_15_521
*967 FILLER_15_529
*968 FILLER_15_537
*969 FILLER_15_539
*970 FILLER_15_541
*971 FILLER_15_549
*972 FILLER_15_557
*973 FILLER_15_56
*974 FILLER_15_561
*975 FILLER_15_563
*976 FILLER_15_61
*977 FILLER_15_69
*978 FILLER_15_77
*979 FILLER_15_8
*980 FILLER_15_85
*981 FILLER_15_93
*982 FILLER_16_0
*983 FILLER_16_107
*984 FILLER_16_115
*985 FILLER_16_123
*986 FILLER_16_131
*987 FILLER_16_139
*988 FILLER_16_147
*989 FILLER_16_149
*990 FILLER_16_151
*991 FILLER_16_159
*992 FILLER_16_16
*993 FILLER_16_167
*994 FILLER_16_175
*995 FILLER_16_183
*996 FILLER_16_191
*997 FILLER_16_199
*998 FILLER_16_207
*999 FILLER_16_209
*1000 FILLER_16_211
*1001 FILLER_16_219
*1002 FILLER_16_227
*1003 FILLER_16_235
*1004 FILLER_16_24
*1005 FILLER_16_243
*1006 FILLER_16_251
*1007 FILLER_16_259
*1008 FILLER_16_267
*1009 FILLER_16_269
*1010 FILLER_16_271
*1011 FILLER_16_279
*1012 FILLER_16_28
*1013 FILLER_16_287
*1014 FILLER_16_295
*1015 FILLER_16_303
*1016 FILLER_16_31
*1017 FILLER_16_311
*1018 FILLER_16_319
*1019 FILLER_16_327
*1020 FILLER_16_329
*1021 FILLER_16_331
*1022 FILLER_16_339
*1023 FILLER_16_347
*1024 FILLER_16_355
*1025 FILLER_16_363
*1026 FILLER_16_371
*1027 FILLER_16_379
*1028 FILLER_16_387
*1029 FILLER_16_389
*1030 FILLER_16_39
*1031 FILLER_16_391
*1032 FILLER_16_399
*1033 FILLER_16_407
*1034 FILLER_16_415
*1035 FILLER_16_423
*1036 FILLER_16_431
*1037 FILLER_16_439
*1038 FILLER_16_447
*1039 FILLER_16_449
*1040 FILLER_16_451
*1041 FILLER_16_459
*1042 FILLER_16_467
*1043 FILLER_16_47
*1044 FILLER_16_475
*1045 FILLER_16_483
*1046 FILLER_16_491
*1047 FILLER_16_499
*1048 FILLER_16_507
*1049 FILLER_16_509
*1050 FILLER_16_511
*1051 FILLER_16_519
*1052 FILLER_16_527
*1053 FILLER_16_535
*1054 FILLER_16_543
*1055 FILLER_16_55
*1056 FILLER_16_551
*1057 FILLER_16_559
*1058 FILLER_16_563
*1059 FILLER_16_63
*1060 FILLER_16_71
*1061 FILLER_16_79
*1062 FILLER_16_8
*1063 FILLER_16_87
*1064 FILLER_16_89
*1065 FILLER_16_91
*1066 FILLER_16_99
*1067 FILLER_17_0
*1068 FILLER_17_101
*1069 FILLER_17_109
*1070 FILLER_17_117
*1071 FILLER_17_119
*1072 FILLER_17_121
*1073 FILLER_17_129
*1074 FILLER_17_137
*1075 FILLER_17_145
*1076 FILLER_17_153
*1077 FILLER_17_16
*1078 FILLER_17_161
*1079 FILLER_17_169
*1080 FILLER_17_177
*1081 FILLER_17_179
*1082 FILLER_17_181
*1083 FILLER_17_189
*1084 FILLER_17_197
*1085 FILLER_17_205
*1086 FILLER_17_213
*1087 FILLER_17_221
*1088 FILLER_17_229
*1089 FILLER_17_237
*1090 FILLER_17_239
*1091 FILLER_17_24
*1092 FILLER_17_241
*1093 FILLER_17_249
*1094 FILLER_17_257
*1095 FILLER_17_265
*1096 FILLER_17_273
*1097 FILLER_17_281
*1098 FILLER_17_289
*1099 FILLER_17_297
*1100 FILLER_17_299
*1101 FILLER_17_301
*1102 FILLER_17_309
*1103 FILLER_17_317
*1104 FILLER_17_32
*1105 FILLER_17_325
*1106 FILLER_17_333
*1107 FILLER_17_341
*1108 FILLER_17_349
*1109 FILLER_17_357
*1110 FILLER_17_359
*1111 FILLER_17_361
*1112 FILLER_17_369
*1113 FILLER_17_377
*1114 FILLER_17_385
*1115 FILLER_17_393
*1116 FILLER_17_40
*1117 FILLER_17_401
*1118 FILLER_17_409
*1119 FILLER_17_417
*1120 FILLER_17_419
*1121 FILLER_17_421
*1122 FILLER_17_429
*1123 FILLER_17_437
*1124 FILLER_17_445
*1125 FILLER_17_453
*1126 FILLER_17_461
*1127 FILLER_17_469
*1128 FILLER_17_477
*1129 FILLER_17_479
*1130 FILLER_17_48
*1131 FILLER_17_481
*1132 FILLER_17_489
*1133 FILLER_17_497
*1134 FILLER_17_505
*1135 FILLER_17_513
*1136 FILLER_17_521
*1137 FILLER_17_529
*1138 FILLER_17_537
*1139 FILLER_17_539
*1140 FILLER_17_541
*1141 FILLER_17_549
*1142 FILLER_17_557
*1143 FILLER_17_56
*1144 FILLER_17_561
*1145 FILLER_17_563
*1146 FILLER_17_61
*1147 FILLER_17_69
*1148 FILLER_17_77
*1149 FILLER_17_8
*1150 FILLER_17_85
*1151 FILLER_17_93
*1152 FILLER_18_0
*1153 FILLER_18_107
*1154 FILLER_18_115
*1155 FILLER_18_123
*1156 FILLER_18_131
*1157 FILLER_18_139
*1158 FILLER_18_147
*1159 FILLER_18_149
*1160 FILLER_18_151
*1161 FILLER_18_159
*1162 FILLER_18_16
*1163 FILLER_18_167
*1164 FILLER_18_175
*1165 FILLER_18_183
*1166 FILLER_18_191
*1167 FILLER_18_199
*1168 FILLER_18_207
*1169 FILLER_18_209
*1170 FILLER_18_211
*1171 FILLER_18_219
*1172 FILLER_18_227
*1173 FILLER_18_235
*1174 FILLER_18_24
*1175 FILLER_18_243
*1176 FILLER_18_251
*1177 FILLER_18_259
*1178 FILLER_18_267
*1179 FILLER_18_269
*1180 FILLER_18_271
*1181 FILLER_18_279
*1182 FILLER_18_28
*1183 FILLER_18_287
*1184 FILLER_18_295
*1185 FILLER_18_303
*1186 FILLER_18_31
*1187 FILLER_18_311
*1188 FILLER_18_319
*1189 FILLER_18_327
*1190 FILLER_18_329
*1191 FILLER_18_331
*1192 FILLER_18_339
*1193 FILLER_18_347
*1194 FILLER_18_355
*1195 FILLER_18_363
*1196 FILLER_18_371
*1197 FILLER_18_379
*1198 FILLER_18_387
*1199 FILLER_18_389
*1200 FILLER_18_39
*1201 FILLER_18_391
*1202 FILLER_18_399
*1203 FILLER_18_407
*1204 FILLER_18_415
*1205 FILLER_18_423
*1206 FILLER_18_431
*1207 FILLER_18_439
*1208 FILLER_18_447
*1209 FILLER_18_449
*1210 FILLER_18_451
*1211 FILLER_18_459
*1212 FILLER_18_467
*1213 FILLER_18_47
*1214 FILLER_18_475
*1215 FILLER_18_483
*1216 FILLER_18_491
*1217 FILLER_18_499
*1218 FILLER_18_507
*1219 FILLER_18_509
*1220 FILLER_18_511
*1221 FILLER_18_519
*1222 FILLER_18_527
*1223 FILLER_18_535
*1224 FILLER_18_543
*1225 FILLER_18_55
*1226 FILLER_18_551
*1227 FILLER_18_559
*1228 FILLER_18_563
*1229 FILLER_18_63
*1230 FILLER_18_71
*1231 FILLER_18_79
*1232 FILLER_18_8
*1233 FILLER_18_87
*1234 FILLER_18_89
*1235 FILLER_18_91
*1236 FILLER_18_99
*1237 FILLER_19_0
*1238 FILLER_19_101
*1239 FILLER_19_109
*1240 FILLER_19_117
*1241 FILLER_19_119
*1242 FILLER_19_121
*1243 FILLER_19_129
*1244 FILLER_19_137
*1245 FILLER_19_145
*1246 FILLER_19_153
*1247 FILLER_19_16
*1248 FILLER_19_161
*1249 FILLER_19_169
*1250 FILLER_19_177
*1251 FILLER_19_179
*1252 FILLER_19_181
*1253 FILLER_19_189
*1254 FILLER_19_197
*1255 FILLER_19_205
*1256 FILLER_19_213
*1257 FILLER_19_221
*1258 FILLER_19_229
*1259 FILLER_19_237
*1260 FILLER_19_239
*1261 FILLER_19_24
*1262 FILLER_19_241
*1263 FILLER_19_249
*1264 FILLER_19_257
*1265 FILLER_19_265
*1266 FILLER_19_273
*1267 FILLER_19_281
*1268 FILLER_19_289
*1269 FILLER_19_297
*1270 FILLER_19_299
*1271 FILLER_19_301
*1272 FILLER_19_309
*1273 FILLER_19_317
*1274 FILLER_19_32
*1275 FILLER_19_325
*1276 FILLER_19_333
*1277 FILLER_19_341
*1278 FILLER_19_349
*1279 FILLER_19_357
*1280 FILLER_19_359
*1281 FILLER_19_361
*1282 FILLER_19_369
*1283 FILLER_19_377
*1284 FILLER_19_385
*1285 FILLER_19_393
*1286 FILLER_19_40
*1287 FILLER_19_401
*1288 FILLER_19_409
*1289 FILLER_19_417
*1290 FILLER_19_419
*1291 FILLER_19_421
*1292 FILLER_19_429
*1293 FILLER_19_437
*1294 FILLER_19_445
*1295 FILLER_19_453
*1296 FILLER_19_461
*1297 FILLER_19_469
*1298 FILLER_19_477
*1299 FILLER_19_479
*1300 FILLER_19_48
*1301 FILLER_19_481
*1302 FILLER_19_489
*1303 FILLER_19_497
*1304 FILLER_19_505
*1305 FILLER_19_513
*1306 FILLER_19_521
*1307 FILLER_19_529
*1308 FILLER_19_537
*1309 FILLER_19_539
*1310 FILLER_19_541
*1311 FILLER_19_549
*1312 FILLER_19_557
*1313 FILLER_19_56
*1314 FILLER_19_561
*1315 FILLER_19_563
*1316 FILLER_19_61
*1317 FILLER_19_69
*1318 FILLER_19_77
*1319 FILLER_19_8
*1320 FILLER_19_85
*1321 FILLER_19_93
*1322 FILLER_1_0
*1323 FILLER_1_101
*1324 FILLER_1_109
*1325 FILLER_1_117
*1326 FILLER_1_119
*1327 FILLER_1_121
*1328 FILLER_1_129
*1329 FILLER_1_137
*1330 FILLER_1_145
*1331 FILLER_1_153
*1332 FILLER_1_16
*1333 FILLER_1_161
*1334 FILLER_1_169
*1335 FILLER_1_177
*1336 FILLER_1_179
*1337 FILLER_1_181
*1338 FILLER_1_189
*1339 FILLER_1_197
*1340 FILLER_1_205
*1341 FILLER_1_213
*1342 FILLER_1_221
*1343 FILLER_1_229
*1344 FILLER_1_234
*1345 FILLER_1_238
*1346 FILLER_1_24
*1347 FILLER_1_241
*1348 FILLER_1_249
*1349 FILLER_1_257
*1350 FILLER_1_265
*1351 FILLER_1_273
*1352 FILLER_1_281
*1353 FILLER_1_289
*1354 FILLER_1_297
*1355 FILLER_1_299
*1356 FILLER_1_301
*1357 FILLER_1_309
*1358 FILLER_1_317
*1359 FILLER_1_32
*1360 FILLER_1_325
*1361 FILLER_1_333
*1362 FILLER_1_341
*1363 FILLER_1_349
*1364 FILLER_1_357
*1365 FILLER_1_359
*1366 FILLER_1_361
*1367 FILLER_1_369
*1368 FILLER_1_377
*1369 FILLER_1_385
*1370 FILLER_1_393
*1371 FILLER_1_40
*1372 FILLER_1_401
*1373 FILLER_1_409
*1374 FILLER_1_417
*1375 FILLER_1_419
*1376 FILLER_1_421
*1377 FILLER_1_429
*1378 FILLER_1_437
*1379 FILLER_1_445
*1380 FILLER_1_453
*1381 FILLER_1_461
*1382 FILLER_1_469
*1383 FILLER_1_477
*1384 FILLER_1_479
*1385 FILLER_1_48
*1386 FILLER_1_481
*1387 FILLER_1_489
*1388 FILLER_1_497
*1389 FILLER_1_505
*1390 FILLER_1_513
*1391 FILLER_1_521
*1392 FILLER_1_529
*1393 FILLER_1_537
*1394 FILLER_1_539
*1395 FILLER_1_541
*1396 FILLER_1_549
*1397 FILLER_1_557
*1398 FILLER_1_56
*1399 FILLER_1_561
*1400 FILLER_1_563
*1401 FILLER_1_61
*1402 FILLER_1_69
*1403 FILLER_1_77
*1404 FILLER_1_8
*1405 FILLER_1_85
*1406 FILLER_1_93
*1407 FILLER_20_0
*1408 FILLER_20_107
*1409 FILLER_20_115
*1410 FILLER_20_123
*1411 FILLER_20_131
*1412 FILLER_20_139
*1413 FILLER_20_147
*1414 FILLER_20_149
*1415 FILLER_20_151
*1416 FILLER_20_159
*1417 FILLER_20_16
*1418 FILLER_20_167
*1419 FILLER_20_175
*1420 FILLER_20_183
*1421 FILLER_20_191
*1422 FILLER_20_199
*1423 FILLER_20_207
*1424 FILLER_20_209
*1425 FILLER_20_211
*1426 FILLER_20_219
*1427 FILLER_20_227
*1428 FILLER_20_235
*1429 FILLER_20_24
*1430 FILLER_20_243
*1431 FILLER_20_251
*1432 FILLER_20_259
*1433 FILLER_20_267
*1434 FILLER_20_269
*1435 FILLER_20_271
*1436 FILLER_20_279
*1437 FILLER_20_28
*1438 FILLER_20_287
*1439 FILLER_20_295
*1440 FILLER_20_303
*1441 FILLER_20_31
*1442 FILLER_20_311
*1443 FILLER_20_319
*1444 FILLER_20_327
*1445 FILLER_20_329
*1446 FILLER_20_331
*1447 FILLER_20_339
*1448 FILLER_20_347
*1449 FILLER_20_355
*1450 FILLER_20_363
*1451 FILLER_20_371
*1452 FILLER_20_379
*1453 FILLER_20_387
*1454 FILLER_20_389
*1455 FILLER_20_39
*1456 FILLER_20_391
*1457 FILLER_20_399
*1458 FILLER_20_407
*1459 FILLER_20_415
*1460 FILLER_20_423
*1461 FILLER_20_431
*1462 FILLER_20_439
*1463 FILLER_20_447
*1464 FILLER_20_449
*1465 FILLER_20_451
*1466 FILLER_20_459
*1467 FILLER_20_467
*1468 FILLER_20_47
*1469 FILLER_20_475
*1470 FILLER_20_483
*1471 FILLER_20_491
*1472 FILLER_20_499
*1473 FILLER_20_507
*1474 FILLER_20_509
*1475 FILLER_20_511
*1476 FILLER_20_519
*1477 FILLER_20_527
*1478 FILLER_20_535
*1479 FILLER_20_543
*1480 FILLER_20_55
*1481 FILLER_20_551
*1482 FILLER_20_559
*1483 FILLER_20_563
*1484 FILLER_20_63
*1485 FILLER_20_71
*1486 FILLER_20_79
*1487 FILLER_20_8
*1488 FILLER_20_87
*1489 FILLER_20_89
*1490 FILLER_20_91
*1491 FILLER_20_99
*1492 FILLER_21_0
*1493 FILLER_21_101
*1494 FILLER_21_109
*1495 FILLER_21_117
*1496 FILLER_21_119
*1497 FILLER_21_121
*1498 FILLER_21_129
*1499 FILLER_21_137
*1500 FILLER_21_145
*1501 FILLER_21_153
*1502 FILLER_21_16
*1503 FILLER_21_161
*1504 FILLER_21_169
*1505 FILLER_21_177
*1506 FILLER_21_179
*1507 FILLER_21_181
*1508 FILLER_21_189
*1509 FILLER_21_197
*1510 FILLER_21_205
*1511 FILLER_21_213
*1512 FILLER_21_221
*1513 FILLER_21_229
*1514 FILLER_21_237
*1515 FILLER_21_239
*1516 FILLER_21_24
*1517 FILLER_21_241
*1518 FILLER_21_249
*1519 FILLER_21_257
*1520 FILLER_21_265
*1521 FILLER_21_273
*1522 FILLER_21_281
*1523 FILLER_21_289
*1524 FILLER_21_297
*1525 FILLER_21_299
*1526 FILLER_21_301
*1527 FILLER_21_309
*1528 FILLER_21_317
*1529 FILLER_21_32
*1530 FILLER_21_325
*1531 FILLER_21_333
*1532 FILLER_21_341
*1533 FILLER_21_349
*1534 FILLER_21_357
*1535 FILLER_21_359
*1536 FILLER_21_361
*1537 FILLER_21_369
*1538 FILLER_21_377
*1539 FILLER_21_385
*1540 FILLER_21_393
*1541 FILLER_21_40
*1542 FILLER_21_401
*1543 FILLER_21_409
*1544 FILLER_21_417
*1545 FILLER_21_419
*1546 FILLER_21_421
*1547 FILLER_21_429
*1548 FILLER_21_437
*1549 FILLER_21_445
*1550 FILLER_21_453
*1551 FILLER_21_461
*1552 FILLER_21_469
*1553 FILLER_21_477
*1554 FILLER_21_479
*1555 FILLER_21_48
*1556 FILLER_21_481
*1557 FILLER_21_489
*1558 FILLER_21_497
*1559 FILLER_21_505
*1560 FILLER_21_513
*1561 FILLER_21_521
*1562 FILLER_21_529
*1563 FILLER_21_537
*1564 FILLER_21_539
*1565 FILLER_21_541
*1566 FILLER_21_549
*1567 FILLER_21_557
*1568 FILLER_21_56
*1569 FILLER_21_561
*1570 FILLER_21_563
*1571 FILLER_21_61
*1572 FILLER_21_69
*1573 FILLER_21_77
*1574 FILLER_21_8
*1575 FILLER_21_85
*1576 FILLER_21_93
*1577 FILLER_22_0
*1578 FILLER_22_107
*1579 FILLER_22_115
*1580 FILLER_22_123
*1581 FILLER_22_131
*1582 FILLER_22_139
*1583 FILLER_22_147
*1584 FILLER_22_149
*1585 FILLER_22_151
*1586 FILLER_22_159
*1587 FILLER_22_16
*1588 FILLER_22_167
*1589 FILLER_22_175
*1590 FILLER_22_183
*1591 FILLER_22_191
*1592 FILLER_22_199
*1593 FILLER_22_207
*1594 FILLER_22_209
*1595 FILLER_22_211
*1596 FILLER_22_219
*1597 FILLER_22_227
*1598 FILLER_22_235
*1599 FILLER_22_24
*1600 FILLER_22_243
*1601 FILLER_22_251
*1602 FILLER_22_259
*1603 FILLER_22_267
*1604 FILLER_22_269
*1605 FILLER_22_271
*1606 FILLER_22_279
*1607 FILLER_22_28
*1608 FILLER_22_287
*1609 FILLER_22_295
*1610 FILLER_22_303
*1611 FILLER_22_31
*1612 FILLER_22_311
*1613 FILLER_22_319
*1614 FILLER_22_327
*1615 FILLER_22_329
*1616 FILLER_22_331
*1617 FILLER_22_339
*1618 FILLER_22_347
*1619 FILLER_22_355
*1620 FILLER_22_363
*1621 FILLER_22_371
*1622 FILLER_22_379
*1623 FILLER_22_387
*1624 FILLER_22_389
*1625 FILLER_22_39
*1626 FILLER_22_391
*1627 FILLER_22_399
*1628 FILLER_22_407
*1629 FILLER_22_415
*1630 FILLER_22_423
*1631 FILLER_22_431
*1632 FILLER_22_439
*1633 FILLER_22_447
*1634 FILLER_22_449
*1635 FILLER_22_451
*1636 FILLER_22_459
*1637 FILLER_22_467
*1638 FILLER_22_47
*1639 FILLER_22_475
*1640 FILLER_22_483
*1641 FILLER_22_491
*1642 FILLER_22_499
*1643 FILLER_22_507
*1644 FILLER_22_509
*1645 FILLER_22_511
*1646 FILLER_22_519
*1647 FILLER_22_527
*1648 FILLER_22_535
*1649 FILLER_22_543
*1650 FILLER_22_55
*1651 FILLER_22_551
*1652 FILLER_22_559
*1653 FILLER_22_563
*1654 FILLER_22_63
*1655 FILLER_22_71
*1656 FILLER_22_79
*1657 FILLER_22_8
*1658 FILLER_22_87
*1659 FILLER_22_89
*1660 FILLER_22_91
*1661 FILLER_22_99
*1662 FILLER_23_0
*1663 FILLER_23_101
*1664 FILLER_23_109